Circuit: * C:\Users\Prajeeth\Desktop\VLSI project\1a.asc

Ignoring BSIM parameter XL
Ignoring BSIM parameter XW
Ignoring BSIM parameter XL
Ignoring BSIM parameter XW
Warning: Pd = 0 is less than W.
Warning: Ps = 0 is less than W.
Warning: Pd = 0 is less than W.
Warning: Ps = 0 is less than W.
.step s=1
.step s=2
.step s=4

Date: Thu May 04 17:41:43 2023
Total elapsed time: 0.252 seconds.

tnom = 27
temp = 27
method = trap
totiter = 1010
traniter = 0
tranpoints = 0
accept = 0
rejected = 0
matrix size = 7
fillins = 0
solver = Normal
Matrix Compiler1: 178 bytes object code size  0.1/0.1/[0.1]
Matrix Compiler2: 447 bytes object code size  0.1/0.1/[0.1]

