Circuit: * C:\Users\Prajeeth\Desktop\VLSI project\1b.asc

Ignoring BSIM parameter XL
Ignoring BSIM parameter XW
Ignoring BSIM parameter XL
Ignoring BSIM parameter XW
Limiting rise time of source v2 to 0.0005
Limiting fall time of source v2 to 0.0005
Warning: Pd = 0 is less than W.
Warning: Ps = 0 is less than W.
Warning: Pd = 0 is less than W.
Warning: Ps = 0 is less than W.
.step s=1
.step s=2
.step s=4

Date: Thu May 04 11:26:20 2023
Total elapsed time: 0.220 seconds.

tnom = 27
temp = 27
method = trap
totiter = 1010
traniter = 0
tranpoints = 0
accept = 0
rejected = 0
matrix size = 7
fillins = 0
solver = Normal
Matrix Compiler1:      11 opcodes  0.1/[0.1]/0.1
Matrix Compiler2: 447 bytes object code size  0.1/0.1/[0.1]

