Circuit: * C:\Users\Prajeeth\Desktop\VLSI project\1c.asc

Ignoring BSIM parameter XL
Ignoring BSIM parameter XW
Ignoring BSIM parameter XL
Ignoring BSIM parameter XW
Limiting rise time of source v2 to 0.0005
Limiting fall time of source v2 to 0.0005
Warning: Pd = 0 is less than W.
Warning: Ps = 0 is less than W.
Warning: Pd = 0 is less than W.
Warning: Ps = 0 is less than W.
Direct Newton iteration for .op point succeeded.
.step kn=1 kp=1
.step kn=2 kp=1
.step kn=4 kp=1
.step kn=1 kp=2
.step kn=2 kp=2
.step kn=4 kp=2
.step kn=1 kp=4
.step kn=2 kp=4
.step kn=4 kp=4

Date: Thu May 04 19:33:57 2023
Total elapsed time: 0.644 seconds.

tnom = 27
temp = 27
method = modified trap
totiter = 2182
traniter = 2173
tranpoints = 1066
accept = 1057
rejected = 9
matrix size = 7
fillins = 0
solver = Normal
Matrix Compiler1: 178 bytes object code size  0.2/0.1/[0.1]
Matrix Compiler2: 447 bytes object code size  0.2/0.2/[0.2]

