Circuit: * C:\Users\Prajeeth\Desktop\VLSI project\1d.asc

Ignoring BSIM parameter XL
Ignoring BSIM parameter XW
Ignoring BSIM parameter XL
Ignoring BSIM parameter XW
Limiting rise time of source v2 to 0.0005
Limiting fall time of source v2 to 0.0005
WARNING: Node NC_01 is floating.

WARNING: Less than two connections to node NC_01.  This node is used by C1.
Warning: Pd = 0 is less than W.
Warning: Ps = 0 is less than W.
Warning: Pd = 0 is less than W.
Warning: Ps = 0 is less than W.
Direct Newton iteration for .op point succeeded.
.step kn=1 kp=1
.step kn=2 kp=1
.step kn=4 kp=1
.step kn=1 kp=2
.step kn=2 kp=2
.step kn=4 kp=2
.step kn=1 kp=4
.step kn=2 kp=4
.step kn=4 kp=4

Date: Thu May 04 19:39:49 2023
Total elapsed time: 0.671 seconds.

tnom = 27
temp = 27
method = modified trap
totiter = 2419
traniter = 2411
tranpoints = 1147
accept = 1115
rejected = 32
matrix size = 8
fillins = 0
solver = Normal
Matrix Compiler1: 192 bytes object code size  0.1/0.1/[0.1]
Matrix Compiler2: 486 bytes object code size  0.1/0.1/[0.1]

