Circuit: * C:\Users\Prajeeth\Desktop\VLSI project\1e.asc

V3: both pins shorted together -- ignoring.
Ignoring BSIM parameter XL
Ignoring BSIM parameter XW
Limiting rise time of source v2 to 0.0005
Limiting fall time of source v2 to 0.0005
Warning: Pd = 0 is less than W.
Warning: Ps = 0 is less than W.
Warning: Pd = 0 is less than W.
Warning: Ps = 0 is less than W.
Direct Newton iteration for .op point succeeded.
.step kn=1
.step kn=2
.step kn=4

Date: Thu May 04 16:13:25 2023
Total elapsed time: 0.238 seconds.

tnom = 27
temp = 27
method = modified trap
totiter = 2388
traniter = 2372
tranpoints = 1163
accept = 1140
rejected = 23
matrix size = 7
fillins = 0
solver = Normal
Matrix Compiler1: 232 bytes object code size  0.1/0.1/[0.1]
Matrix Compiler2: 475 bytes object code size  0.1/0.1/[0.1]

